5
CH4 (sp, x, y, z, q, dq)
C    0.00000   0.00000   0.00000   5.019497520     1.019497520
H   -0.88998  -0.62931   0.00000   0.745125620    -0.254874380
H    0.00000   0.62931  -0.88998   0.745125620    -0.254874380
H    0.00000   0.62931   0.88998   0.745125620    -0.254874380
H    0.88998  -0.62931   0.00000   0.745125620    -0.254874380
